94

C	-3.774985	3.23048	12.05466	
P	-4.741625	2.492544	12.99192	
C	-4.017475	1.906016	14.14448	
P	-5.805333	3.51627	13.47941	
P	-7.037751	2.6389	13.84828	
P	-7.958224	2.317485	12.63633	
P	-9.275807	1.690308	13.06059	
C	-10.32189	2.853711	13.14791	
P	-9.651776	0.654783	11.95016	
P	-10.4389	-0.4510422	12.56474	
P	-10.30388	-1.844857	11.81072	
P	-11.31239	-2.853668	12.34808	
C	-10.97908	-3.21313	13.81485	
P	-12.72703	-2.352424	12.25403	
P	-13.2058	-2.012793	10.84799	
P	-13.90536	-0.6551424	10.74931	
P	-14.27927	-0.2922518	9.306708	
P	-15.72569	0.1880393	9.256303	
C	-16.1117	0.8107954	7.924702	
P	-16.60182	-1.001148	9.486503	
P	-17.69142	-0.7698638	10.57992	
P	-18.63129	-1.942124	10.70329	
P	-19.93696	-1.62256	11.48147	
C	-20.78535	-0.5686515	10.80074	
P	-20.76051	-2.906286	11.64519	
P	-21.493	-2.907284	13.00018	
P	-22.37992	-4.127439	13.26214	
P	-21.61659	-5.499475	13.00259	
C	-20.53836	-5.931711	14.11596	
C	-22.68646	-6.572399	12.8834	
H	-4.35856	3.564867	11.14053	
H	-3.215438	3.92547	12.55152	
H	-3.018887	2.589279	11.59697	
H	-5.270397	1.652777	12.44494	
H	-3.234173	1.249338	13.89604	
H	-3.650144	2.667083	14.84957	
H	-4.67611	1.344178	14.82669	
H	-5.411527	4.135524	14.27259	
H	-6.15657	4.176833	12.68644	
H	-6.742809	1.676461	14.33986	
H	-7.4962	3.21902	14.69858	
H	-8.092109	3.22866	12.10675	
H	-7.352589	1.677943	11.9144	
H	-9.235579	1.206182	14.0684	
H	-10.31022	3.259909	12.15647	
H	-11.30385	2.565907	13.28013	
H	-9.931915	3.670861	13.78211	
H	-10.20176	1.241338	11.17776	
H	-8.736232	0.1549598	11.45623	
H	-10.14827	-0.7781589	13.62191	
H	-11.54866	-0.2568605	12.69257	
H	-10.36764	-1.55775	10.74674	
H	-9.26561	-2.148664	11.99072	
H	-11.04647	-3.799203	11.71517	
H	-11.88381	-3.694634	14.2968	
H	-10.25718	-4.026278	13.82556	
H	-10.72361	-2.392815	14.5027	
H	-13.3681	-3.200372	12.5649	
H	-12.88453	-1.565483	13.02127	
H	-12.3087	-2.066692	10.18378	
H	-13.82443	-2.77491	10.4574	
H	-14.79621	-0.6612457	11.44541	
H	-13.29409	0.146525	11.32862	
H	-13.53034	0.4384188	8.892805	
H	-14.12259	-1.044382	8.471776	
H	-15.80771	0.9698913	9.999195	
H	-15.99247	0.05840322	7.120975	
H	-17.15785	1.148349	7.866376	
H	-15.47979	1.615477	7.570157	
H	-17.09255	-1.175883	8.541821	
H	-16.00903	-1.893512	9.809672	
H	-17.21304	-0.5745656	11.53327	
H	-18.25994	0.1132911	10.29978	
H	-18.95623	-2.302186	9.724605	
H	-18.12033	-2.794417	11.25666	
H	-19.6522	-1.324133	12.49269	
H	-21.72516	-0.4350258	11.34658	
H	-20.28402	0.4352986	10.75136	
H	-21.02379	-0.7919223	9.815362	
H	-21.50318	-3.010712	10.8527	
H	-20.11005	-3.828671	11.721	
H	-20.75754	-2.837236	13.80592	
H	-22.10799	-2.013756	13.08886	
H	-22.67968	-4.139076	14.34023	
H	-23.26902	-4.145286	12.58347	
H	-21.06535	-5.437256	12.03574	
H	-20.56534	-5.269258	14.99618	
H	-20.74885	-6.969651	14.45048	
H	-19.51966	-5.911617	13.65479	
H	-23.23298	-6.603582	13.82492	
H	-23.39105	-6.395989	12.08011	
H	-22.2676	-7.567651	12.58364	
C	-7.825186	-1.473432	7.672029	
N	-7.925647	-2.141032	6.794779	
